[Format]      =  4.0
[Frequency]   =  0
[Precision]   =  1e-008
[MinAngle]    =  30
[Depth]       =  75
[LengthUnits] =  millimeters
[ProblemType] =  planar
[Coordinates] =  cartesian
[ACSolver]    =  0
[Comment]     =  "Add comments here."
[PointProps]   = 0
[BdryProps]   = 9
  <BeginBdry>
    <BdryName> = "A=0"
    <BdryType> = 0
    <A_0> = 0
    <A_1> = 0
    <A_2> = 0
    <Phi> = 0
    <c0> = 0
    <c0i> = 0
    <c1> = 0
    <c1i> = 0
    <Mu_ssd> = 0
    <Sigma_ssd> = 0
  <EndBdry>
  <BeginBdry>
    <BdryName> = "pbc0"
    <BdryType> = 4
    <A_0> = 0
    <A_1> = 0
    <A_2> = 0
    <Phi> = 0
    <c0> = 0
    <c0i> = 0
    <c1> = 0
    <c1i> = 0
    <Mu_ssd> = 0
    <Sigma_ssd> = 0
  <EndBdry>
  <BeginBdry>
    <BdryName> = "pbc1"
    <BdryType> = 4
    <A_0> = 0
    <A_1> = 0
    <A_2> = 0
    <Phi> = 0
    <c0> = 0
    <c0i> = 0
    <c1> = 0
    <c1i> = 0
    <Mu_ssd> = 0
    <Sigma_ssd> = 0
  <EndBdry>
  <BeginBdry>
    <BdryName> = "pbc2"
    <BdryType> = 4
    <A_0> = 0
    <A_1> = 0
    <A_2> = 0
    <Phi> = 0
    <c0> = 0
    <c0i> = 0
    <c1> = 0
    <c1i> = 0
    <Mu_ssd> = 0
    <Sigma_ssd> = 0
  <EndBdry>
  <BeginBdry>
    <BdryName> = "pbc3"
    <BdryType> = 4
    <A_0> = 0
    <A_1> = 0
    <A_2> = 0
    <Phi> = 0
    <c0> = 0
    <c0i> = 0
    <c1> = 0
    <c1i> = 0
    <Mu_ssd> = 0
    <Sigma_ssd> = 0
  <EndBdry>
  <BeginBdry>
    <BdryName> = "pbc4"
    <BdryType> = 4
    <A_0> = 0
    <A_1> = 0
    <A_2> = 0
    <Phi> = 0
    <c0> = 0
    <c0i> = 0
    <c1> = 0
    <c1i> = 0
    <Mu_ssd> = 0
    <Sigma_ssd> = 0
  <EndBdry>
  <BeginBdry>
    <BdryName> = "pbc5"
    <BdryType> = 4
    <A_0> = 0
    <A_1> = 0
    <A_2> = 0
    <Phi> = 0
    <c0> = 0
    <c0i> = 0
    <c1> = 0
    <c1i> = 0
    <Mu_ssd> = 0
    <Sigma_ssd> = 0
  <EndBdry>
  <BeginBdry>
    <BdryName> = "pbc6"
    <BdryType> = 4
    <A_0> = 0
    <A_1> = 0
    <A_2> = 0
    <Phi> = 0
    <c0> = 0
    <c0i> = 0
    <c1> = 0
    <c1i> = 0
    <Mu_ssd> = 0
    <Sigma_ssd> = 0
  <EndBdry>
  <BeginBdry>
    <BdryName> = "pbc7"
    <BdryType> = 4
    <A_0> = 0
    <A_1> = 0
    <A_2> = 0
    <Phi> = 0
    <c0> = 0
    <c0i> = 0
    <c1> = 0
    <c1i> = 0
    <Mu_ssd> = 0
    <Sigma_ssd> = 0
  <EndBdry>
[BlockProps]  = 7
  <BeginBlock>
    <BlockName> = "Air"
    <Mu_x> = 1
    <Mu_y> = 1
    <H_c> = 0
    <H_cAngle> = 0
    <J_re> = 0
    <J_im> = 0
    <Sigma> = 0
    <d_lam> = 0
    <Phi_h> = 0
    <Phi_hx> = 0
    <Phi_hy> = 0
    <LamType> = 0
    <LamFill> = 1
    <NStrands> = 0
    <WireD> = 0
    <BHPoints> = 0
  <EndBlock>
  <BeginBlock>
    <BlockName> = "M-19 Steel"
    <Mu_x> = 4416
    <Mu_y> = 4416
    <H_c> = 0
    <H_cAngle> = 0
    <J_re> = 0
    <J_im> = 0
    <Sigma> = 1.8999999999999999
    <d_lam> = 0.63500000000000001
    <Phi_h> = 0
    <Phi_hx> = 0
    <Phi_hy> = 0
    <LamType> = 0
    <LamFill> = 0.97999999999999998
    <NStrands> = 0
    <WireD> = 0
    <BHPoints> = 47
      0	0
      0.050000000000000003	15.120714
      0.10000000000000001	22.718292000000002
      0.14999999999999999	27.842732999999999
      0.20000000000000001	31.871434000000001
      0.25	35.365043999999997
      0.29999999999999999	38.600588000000002
      0.34999999999999998	41.736201999999999
      0.40000000000000002	44.873978999999999
      0.45000000000000001	48.087806999999998
      0.5	51.437235999999999
      0.55000000000000004	54.975220999999998
      0.59999999999999998	58.752992999999996
      0.65000000000000002	62.823644000000002
      0.69999999999999996	67.245284999999996
      0.75	72.084406000000001
      0.80000000000000004	77.420100000000005
      0.84999999999999998	83.350020999999998
      0.90000000000000002	89.999611999999999
      0.94999999999999996	97.537352999999996
      1	106.20140600000001
      1.05	116.34846400000001
      1.1000000000000001	128.54732899999999
      1.1499999999999999	143.76543100000001
      1.2	163.75416899999999
      1.25	191.86815799999999
      1.3	234.833507
      1.3500000000000001	306.50976900000001
      1.3999999999999999	435.255202
      1.45	674.911968
      1.5	1108.3255690000001
      1.55	1813.085468
      1.6000000000000001	2801.2174209999998
      1.6499999999999999	4053.6531169999998
      1.7	5591.10689
      1.75	7448.318413
      1.8	9708.81567
      1.8500000000000001	12486.931615
      1.8999999999999999	16041.483644
      1.95	21249.420623999998
      2	31313.495878000002
      2.0499999999999998	53589.446877000002
      2.1000000000000001	88477.484601000004
      2.1499999999999999	124329.41054
      2.2000000000000002	159968.5693
      2.25	197751.604272
      2.2999999999999998	234024.75134700001
  <EndBlock>
  <BeginBlock>
    <BlockName> = "Pure Iron"
    <Mu_x> = 14872
    <Mu_y> = 14872
    <H_c> = 0
    <H_cAngle> = 0
    <J_re> = 0
    <J_im> = 0
    <Sigma> = 10.44
    <d_lam> = 0
    <Phi_h> = 0
    <Phi_hx> = 0
    <Phi_hy> = 0
    <LamType> = 0
    <LamFill> = 1
    <NStrands> = 0
    <WireD> = 0
    <BHPoints> = 21
      0	0
      0.22706499999999999	13.898400000000001
      0.45412999999999998	27.796700000000001
      0.68119499999999999	42.397399999999998
      0.90825999999999996	61.415700000000001
      1.13533	82.382400000000004
      1.36239	144.66900000000001
      1.58935	897.75999999999999
      1.81236	4581.7399999999998
      2.01004	17736.200000000001
      2.1331600000000002	41339.300000000003
      2.1999900000000001	68321.800000000003
      2.2547899999999998	95685.5
      2.2999299999999998	123355
      2.3425099999999999	151083
      2.3787600000000002	178954
      2.4150100000000001	206825
      2.45126	234696
      2.4874999999999998	262568
      2.5237500000000002	290439
      2.5600000000000001	318310
  <EndBlock>
  <BeginBlock>
    <BlockName> = "3MEN NdFeB Magnet"
    <Mu_x> = 1.2230000000000001
    <Mu_y> = 1.2230000000000001
    <H_c> = 324900
    <H_cAngle> = 0
    <J_re> = 0
    <J_im> = 0
    <Sigma> = 0
    <d_lam> = 0
    <Phi_h> = 0
    <Phi_hx> = 0
    <Phi_hy> = 0
    <LamType> = 0
    <LamFill> = 1
    <NStrands> = 0
    <WireD> = 0
    <BHPoints> = 3
      0	0
      0.28899999999999998	172900
      0.499	324900
  <EndBlock>
  <BeginBlock>
    <BlockName> = "Magnet_nomagnetized"
    <Mu_x> = 1.2230000000000001
    <Mu_y> = 1.2230000000000001
    <H_c> = 0
    <H_cAngle> = 0
    <J_re> = 0
    <J_im> = 0
    <Sigma> = 0
    <d_lam> = 0
    <Phi_h> = 0
    <Phi_hx> = 0
    <Phi_hy> = 0
    <LamType> = 0
    <LamFill> = 1
    <NStrands> = 0
    <WireD> = 0
    <BHPoints> = 0
  <EndBlock>
  <BeginBlock>
    <BlockName> = "1018 Steel"
    <Mu_x> = 529
    <Mu_y> = 529
    <H_c> = 0
    <H_cAngle> = 0
    <J_re> = 0
    <J_im> = 0
    <Sigma> = 5.7999999999999998
    <d_lam> = 0
    <Phi_h> = 20
    <Phi_hx> = 0
    <Phi_hy> = 0
    <LamType> = 0
    <LamFill> = 1
    <NStrands> = 0
    <WireD> = 0
    <BHPoints> = 13
      0	0
      0.25030000000000002	238.73249999999999
      0.92500000000000004	795.77499999999998
      1.25	1591.55
      1.3899999999999999	2387.3249999999998
      1.5249999999999999	3978.875
      1.71	7957.75
      1.8700000000000001	15915.5
      1.9550000000000001	23873.25
      2.02	39788.75
      2.1099999999999999	79577.5
      2.2250000000000001	159155
      2.4300000000000002	318310
  <EndBlock>
  <BeginBlock>
    <BlockName> = "0.85mm"
    <Mu_x> = 1
    <Mu_y> = 1
    <H_c> = 0
    <H_cAngle> = 0
    <J_re> = 0
    <J_im> = 0
    <Sigma> = 58
    <d_lam> = 0
    <Phi_h> = 0
    <Phi_hx> = 0
    <Phi_hy> = 0
    <LamType> = 3
    <LamFill> = 1
    <NStrands> = 1
    <WireD> = 0.84999999999999998
    <BHPoints> = 0
  <EndBlock>
[CircuitProps]  = 3
  <BeginCircuit>
    <CircuitName> = "A"
    <TotalAmps_re> = 0
    <TotalAmps_im> = 0
    <CircuitType> = 1
  <EndCircuit>
  <BeginCircuit>
    <CircuitName> = "B"
    <TotalAmps_re> = 0
    <TotalAmps_im> = 0
    <CircuitType> = 1
  <EndCircuit>
  <BeginCircuit>
    <CircuitName> = "C"
    <TotalAmps_re> = 0
    <TotalAmps_im> = 0
    <CircuitType> = 1
  <EndCircuit>
[NumPoints] = 71
-18.779812000000007	7.3784520000000109	0	0
-17.718565999999996	6.7657419999999897	0	0
-16.183324999999996	1.2500249999999946	0	0
-16.101552999999996	1.2500249999999946	0	0
-9.1333079999999995	13.319378	0	0
-9.174194	13.390195000000006	0	0
-14.718565999999996	11.961894000000003	0	0
-15.779812000000007	12.574604999999993	0	0
-2.9999999999999987	19.953032000000007	0	0
-2.9999999999999987	18.727610999999996	0	0
-7.0091309999999956	14.640195000000006	0	0
-6.9682449999999951	14.569378	0	0
6.9682439999999994	14.569378	0	0
7.0091299999999999	14.640195000000006	0	0
3.0000000000000013	18.727610999999996	0	0
3.0000000000000013	19.953032000000007	0	0
15.779810999999995	12.574604999999989	0	0
14.718564999999998	11.961893999999999	0	0
9.174194	13.390195000000006	0	0
9.1333079999999995	13.319378	0	0
16.101551999999998	1.2500249999999928	0	0
16.183323999999999	1.2500249999999928	0	0
17.718564999999998	6.7657419999999879	0	0
18.779810999999995	7.3784520000000091	0	0
1.6317894972262583e-015	26.650024999999971	0	0
-20.2272228675984	6.8324467618217577	0	0
-17.267204866218279	5.5916380989269507	0	0
-17.855765593260159	3.2548882964453023	0	0
-11.746677728112147	13.836139651859696	0	0
-13.476081978499479	12.158055864772535	0	0
-16.030662677249893	14.101101998250785	0	0
-4.1965600639406793	20.933524077548839	0	0
-3.7911227217829966	17.749669139435355	0	0
-6.1090884960628804	17.091003256006047	0	0
6.1090881263529875	17.091002880727842	0	0
3.7911225996385562	17.74966976924847	0	0
4.1965601903485075	20.933523760072546	0	0
16.030661959285084	14.101102162654284	0	0
13.476081144435284	12.158056040508399	0	0
11.746677097197264	13.836139959560739	0	0
17.855764854465136	3.2548882288681673	0	0
17.267204578138035	5.5916389044759276	0	0
20.227221867598388	6.8324467618217559	0	0
24	1.6000249999999865	0	0
1.5674976636505861e-015	25.600025000000016	0	0
1.3715606470390031e-015	22.400024999999971	0	0
-24.000000000000014	1.6000249999999896	0	0
1.7695577120312757e-015	28.900024999999971	0	0
-21.100435996785091	3.2548882964453023	0	0
21.100436007209254	3.2548382288681457	0	0
7.7314454121960656	19.900932727605174	0	0
13.369033949594842	16.646069455920856	0	0
-13.368990595013186	16.646094498737032	0	0
-7.7314020471902465	19.900957752366168	0	0
-26.649999999988264	1.631787966467599e-015	0	0
26.649999999988268	-1.6317879664675994e-015	0	0
21.35000079157507	-1.3072673311737808e-015	0	0
22.40000000019532	-1.371559116293022e-015	0	0
25.59999999980468	-1.5674961328806834e-015	0	0
-25.599999999804695	1.5674961328806842e-015	0	0
-22.400000000195334	1.3715591162930228e-015	0	0
-28.899999999989177	1.7695561812726725e-015	0	0
28.899999999989177	-1.7695561812726725e-015	0	0
4	-2.4492127076447545e-016	0	0
-4	2.4492127076447545e-016	0	0
-21.350000819203423	1.3072673328654735e-015	0	0
13.25	-8.1130170940732493e-016	0	0
-13.25	8.1130170940732493e-016	0	0
15.75	-9.6437750363512209e-016	0	0
-15.75	9.6437750363512209e-016	0	0
0	0	0	0
[NumSegments] = 28
0	1	-1	0	0	0
2	3	-1	0	0	0
4	5	-1	0	0	0
6	7	-1	0	0	0
8	9	-1	0	0	0
10	11	-1	0	0	0
12	13	-1	0	0	0
14	15	-1	0	0	0
16	17	-1	0	0	0
18	19	-1	0	0	0
20	21	-1	0	0	0
22	23	-1	0	0	0
61	54	-1	9	0	0
54	59	-1	8	0	0
59	60	-1	7	0	0
60	65	-1	6	0	0
65	69	-1	5	0	0
69	67	-1	4	0	0
67	64	-1	3	0	0
64	70	-1	2	0	0
63	66	-1	3	0	0
66	68	-1	4	0	0
68	56	-1	5	0	0
56	57	-1	6	0	0
57	58	-1	7	0	0
58	55	-1	8	0	0
55	62	-1	9	0	0
70	63	-1	2	0	0
[NumArcSegments] = 56
24	54	90.000053748385994	5	0	0	0
0	25	101.33587999999997	5	0	0	0
26	1	77.943433999999996	5	0	0	0
26	27	7.6126209999999901	5	0	0	0
27	2	100.33081300000001	5	0	0	0
4	3	51.121803999999997	5	0	0	0
5	28	100.33081299999998	5	0	0	0
28	29	7.6126210000000043	5	0	0	0
6	29	77.943433999999996	5	0	0	0
30	7	101.33588	5	0	0	0
31	53	9.8949952713201696	5	0	0	0
53	52	17.538184605108835	5	0	0	0
52	30	9.8950601235709872	5	0	0	0
8	31	101.33587999999997	5	0	0	0
32	9	77.943433999999996	5	0	0	0
32	33	7.6126210000000007	5	0	0	0
33	10	100.33081300000001	5	0	0	0
12	11	51.121803999999997	5	0	0	0
13	34	100.33081299999998	5	0	0	0
34	35	7.6126210000000469	5	0	0	0
14	35	77.943433999999996	5	0	0	0
36	15	101.33587999999997	5	0	0	0
37	51	9.8949301340150786	5	0	0	0
51	50	17.538185111549353	5	0	0	0
50	36	9.8951247544356065	5	0	0	0
16	37	101.33587999999997	5	0	0	0
38	17	77.943433999999996	5	0	0	0
38	39	7.6126210000000469	5	0	0	0
39	18	100.33081299999998	5	0	0	0
20	19	51.121803999999997	5	0	0	0
21	40	100.33081299999998	5	0	0	0
40	41	7.6126210000000469	5	0	0	0
22	41	77.943433999999996	5	0	0	0
42	23	101.33587999999997	5	0	0	0
49	42	9.8951669616338922	5	0	0	0
25	48	9.8950338558822537	5	0	0	0
43	57	90.000895246554705	5	0	0	0
44	45	180	5	0	0	0
45	44	180	5	0	0	0
46	59	90.000895246554705	5	0	0	0
47	61	90.000049563823069	0.56000000000000005	1	0	0
48	65	8.7691532351959811	5	0	0	0
48	27	90	5	0	0	0
40	49	90	5	0	0	0
34	50	90	5	0	0	0
51	39	90	5	0	0	0
28	52	90	5	0	0	0
53	33	90	5	0	0	0
55	24	90.000053748385994	5	0	0	0
56	49	8.7690179025428083	5	0	0	0
58	43	90.000895246554705	5	0	0	0
60	46	90.000895246554705	5	0	0	0
62	47	90.000049563823069	0.56000000000000005	1	0	0
63	64	180	5	0	0	0
68	69	180	5	0	0	0
66	67	180	5	0	0	0
[NumHoles] = 0
[NumBlockLabels] = 14
-19.100000000000001	4.7000000000000011	7	0.25	2	0	0	-18	0
-14.199999999999999	13.199999999999999	7	0.25	2	0	0	18	0
19.199999999999999	4.9999999999999964	7	0.25	3	0	0	18	0
13.700000000000001	14.099999999999998	7	0.25	3	0	0	-18	0
5.1000000000000032	19.199999999999999	7	0.25	1	0	0	18	0
-5.0999999999999961	19.699999999999999	7	0.25	1	0	0	-18	0
-23.792481582394981	0.63072985611570531	1	0.25	0	0	0	1	0
24.288687046234276	0.74811868716886243	1	0.25	0	0	0	1	0
0.10000000000000075	24.300000000000001	1	0.25	0	0	0	1	0
-0.59999999999999998	27.699999999999999	3	0.25	0	0	0	1	0
-9.5	16.399999999999999	1	0.25	0	0	0	1	0
-11.6	21.5	2	0.25	0	0	0	1	0
-3.1000000000000001	6.4000000000000004	2	0.25	0	0	8	1	0
-1.7	1.5	6	0.25	0	0	8	1	0
