[Format]      =  4.0
[Frequency]   =  0
[Precision]   =  1e-008
[MinAngle]    =  30
[Depth]       =  75
[LengthUnits] =  millimeters
[ProblemType] =  planar
[Coordinates] =  cartesian
[ACSolver]    =  0
[Comment]     =  "Add comments here."
[PointProps]   = 0
[BdryProps]   = 1
  <BeginBdry>
    <BdryName> = "A=0"
    <BdryType> = 0
    <A_0> = 0
    <A_1> = 0
    <A_2> = 0
    <Phi> = 0
    <c0> = 185680766.94054461
    <c0i> = 0
    <c1> = 0
    <c1i> = 0
    <Mu_ssd> = 0
    <Sigma_ssd> = 0
  <EndBdry>
[BlockProps]  = 6
  <BeginBlock>
    <BlockName> = "Air"
    <Mu_x> = 1
    <Mu_y> = 1
    <H_c> = 0
    <H_cAngle> = 0
    <J_re> = 0
    <J_im> = 0
    <Sigma> = 0
    <d_lam> = 0
    <Phi_h> = 0
    <Phi_hx> = 0
    <Phi_hy> = 0
    <LamType> = 0
    <LamFill> = 1
    <NStrands> = 0
    <WireD> = 0
    <BHPoints> = 0
  <EndBlock>
  <BeginBlock>
    <BlockName> = "M-19 Steel"
    <Mu_x> = 4416
    <Mu_y> = 4416
    <H_c> = 0
    <H_cAngle> = 0
    <J_re> = 0
    <J_im> = 0
    <Sigma> = 1.8999999999999999
    <d_lam> = 0.63500000000000001
    <Phi_h> = 0
    <Phi_hx> = 0
    <Phi_hy> = 0
    <LamType> = 0
    <LamFill> = 0.97999999999999998
    <NStrands> = 0
    <WireD> = 0
    <BHPoints> = 47
      0	0
      0.050000000000000003	15.120714
      0.10000000000000001	22.718292000000002
      0.14999999999999999	27.842732999999999
      0.20000000000000001	31.871434000000001
      0.25	35.365043999999997
      0.29999999999999999	38.600588000000002
      0.34999999999999998	41.736201999999999
      0.40000000000000002	44.873978999999999
      0.45000000000000001	48.087806999999998
      0.5	51.437235999999999
      0.55000000000000004	54.975220999999998
      0.59999999999999998	58.752992999999996
      0.65000000000000002	62.823644000000002
      0.69999999999999996	67.245284999999996
      0.75	72.084406000000001
      0.80000000000000004	77.420100000000005
      0.84999999999999998	83.350020999999998
      0.90000000000000002	89.999611999999999
      0.94999999999999996	97.537352999999996
      1	106.20140600000001
      1.05	116.34846400000001
      1.1000000000000001	128.54732899999999
      1.1499999999999999	143.76543100000001
      1.2	163.75416899999999
      1.25	191.86815799999999
      1.3	234.833507
      1.3500000000000001	306.50976900000001
      1.3999999999999999	435.255202
      1.45	674.911968
      1.5	1108.3255690000001
      1.55	1813.085468
      1.6000000000000001	2801.2174209999998
      1.6499999999999999	4053.6531169999998
      1.7	5591.10689
      1.75	7448.318413
      1.8	9708.81567
      1.8500000000000001	12486.931615
      1.8999999999999999	16041.483644
      1.95	21249.420623999998
      2	31313.495878000002
      2.0499999999999998	53589.446877000002
      2.1000000000000001	88477.484601000004
      2.1499999999999999	124329.41054
      2.2000000000000002	159968.5693
      2.25	197751.604272
      2.2999999999999998	234024.75134700001
  <EndBlock>
  <BeginBlock>
    <BlockName> = "Pure Iron"
    <Mu_x> = 14872
    <Mu_y> = 14872
    <H_c> = 0
    <H_cAngle> = 0
    <J_re> = 0
    <J_im> = 0
    <Sigma> = 10.44
    <d_lam> = 0
    <Phi_h> = 0
    <Phi_hx> = 0
    <Phi_hy> = 0
    <LamType> = 0
    <LamFill> = 1
    <NStrands> = 0
    <WireD> = 0
    <BHPoints> = 21
      0	0
      0.22706499999999999	13.898400000000001
      0.45412999999999998	27.796700000000001
      0.68119499999999999	42.397399999999998
      0.90825999999999996	61.415700000000001
      1.13533	82.382400000000004
      1.36239	144.66900000000001
      1.58935	897.75999999999999
      1.81236	4581.7399999999998
      2.01004	17736.200000000001
      2.1331600000000002	41339.300000000003
      2.1999900000000001	68321.800000000003
      2.2547899999999998	95685.5
      2.2999299999999998	123355
      2.3425099999999999	151083
      2.3787600000000002	178954
      2.4150100000000001	206825
      2.45126	234696
      2.4874999999999998	262568
      2.5237500000000002	290439
      2.5600000000000001	318310
  <EndBlock>
  <BeginBlock>
    <BlockName> = "CRS NdFeB Magnet"
    <Mu_x> = 1.2230000000000001
    <Mu_y> = 1.2230000000000001
    <H_c> = 324900
    <H_cAngle> = 0
    <J_re> = 0
    <J_im> = 0
    <Sigma> = 0
    <d_lam> = 0
    <Phi_h> = 0
    <Phi_hx> = 0
    <Phi_hy> = 0
    <LamType> = 0
    <LamFill> = 1
    <NStrands> = 0
    <WireD> = 0
    <BHPoints> = 3
      0	0
      0.28899999999999998	172900
      0.499	324900
  <EndBlock>
  <BeginBlock>
    <BlockName> = "0.85mm"
    <Mu_x> = 1
    <Mu_y> = 1
    <H_c> = 0
    <H_cAngle> = 0
    <J_re> = 0
    <J_im> = 0
    <Sigma> = 58
    <d_lam> = 0
    <Phi_h> = 0
    <Phi_hx> = 0
    <Phi_hy> = 0
    <LamType> = 3
    <LamFill> = 1
    <NStrands> = 1
    <WireD> = 0.84999999999999998
    <BHPoints> = 0
  <EndBlock>
  <BeginBlock>
    <BlockName> = "1018 Steel"
    <Mu_x> = 529
    <Mu_y> = 529
    <H_c> = 0
    <H_cAngle> = 0
    <J_re> = 0
    <J_im> = 0
    <Sigma> = 5.7999999999999998
    <d_lam> = 0
    <Phi_h> = 20
    <Phi_hx> = 0
    <Phi_hy> = 0
    <LamType> = 0
    <LamFill> = 1
    <NStrands> = 0
    <WireD> = 0
    <BHPoints> = 13
      0	0
      0.25030000000000002	238.73249999999999
      0.92500000000000004	795.77499999999998
      1.25	1591.55
      1.3899999999999999	2387.3249999999998
      1.5249999999999999	3978.875
      1.71	7957.75
      1.8700000000000001	15915.5
      1.9550000000000001	23873.25
      2.02	39788.75
      2.1099999999999999	79577.5
      2.2250000000000001	159155
      2.4300000000000002	318310
  <EndBlock>
[CircuitProps]  = 3
  <BeginCircuit>
    <CircuitName> = "A"
    <TotalAmps_re> = 0
    <TotalAmps_im> = 0
    <CircuitType> = 1
  <EndCircuit>
  <BeginCircuit>
    <CircuitName> = "B"
    <TotalAmps_re> = 0
    <TotalAmps_im> = 0
    <CircuitType> = 1
  <EndCircuit>
  <BeginCircuit>
    <CircuitName> = "C"
    <TotalAmps_re> = 0
    <TotalAmps_im> = 0
    <CircuitType> = 1
  <EndCircuit>
[NumPoints] = 122
7.37845200000001	18.779812000000007	0	0
6.7657419999999888	17.718565999999996	0	0
1.2500249999999937	16.183324999999996	0	0
1.2500249999999937	16.101552999999996	0	0
13.319378	9.1333079999999995	0	0
13.390195000000006	9.174194	0	0
11.961894000000001	14.718565999999996	0	0
12.574604999999991	15.779812000000007	0	0
19.953032000000007	3	0	0
18.727610999999996	3	0	0
14.640195000000006	7.0091309999999964	0	0
14.569378	6.968244999999996	0	0
14.569378	-6.9682439999999986	0	0
14.640195000000006	-7.009129999999999	0	0
18.727610999999996	-3	0	0
19.953032000000007	-3	0	0
12.574604999999991	-15.779810999999995	0	0
11.961894000000001	-14.718564999999998	0	0
13.390195000000006	-9.174194	0	0
13.319378	-9.1333079999999995	0	0
1.2500249999999937	-16.101551999999998	0	0
1.2500249999999937	-16.183323999999999	0	0
6.7657419999999888	-17.718564999999998	0	0
7.37845200000001	-18.779810999999995	0	0
-7.3784029999999916	-18.779810999999995	0	0
-6.7656920000000014	-17.718564999999998	0	0
-1.2499750000000063	-16.183323999999999	0	0
-1.2499750000000063	-16.101551999999998	0	0
-13.31932900000001	-9.1333079999999995	0	0
-13.390145999999987	-9.174194	0	0
-11.961845000000011	-14.718564999999998	0	0
-12.574555000000004	-15.779810999999995	0	0
-19.952982999999989	-3	0	0
-18.727562000000006	-3	0	0
-14.640145999999987	-7.009129999999999	0	0
-14.56932900000001	-6.9682439999999986	0	0
-14.56932900000001	6.968244999999996	0	0
-14.640145999999987	7.0091309999999964	0	0
-18.727562000000006	3	0	0
-19.952982999999989	3	0	0
-12.574555000000004	15.779812000000007	0	0
-11.961845000000011	14.718565999999996	0	0
-13.390145999999987	9.174194	0	0
-13.31932900000001	9.1333079999999995	0	0
-1.2499750000000063	16.101552999999996	0	0
-1.2499750000000063	16.183324999999996	0	0
-6.7656920000000014	17.718565999999996	0	0
-7.3784029999999916	18.779812000000007	0	0
26.650024999999971	0	0	0
-26.649975000000012	0	0	0
-22.399975000000012	0	0	0
-25.599975000000001	0	0	0
6.8324467618217568	20.2272228675984	0	0
5.5916380989269499	17.267204866218279	0	0
3.2548882964453014	17.855765593260159	0	0
13.836139651859696	11.746677728112147	0	0
12.158055864772535	13.476081978499479	0	0
14.101101998250783	16.030662677249893	0	0
20.933524077548839	4.1965600639406802	0	0
17.749669139435355	3.7911227217829975	0	0
17.091003256006047	6.1090884960628813	0	0
17.091002880727842	-6.1090881263529866	0	0
17.74966976924847	-3.7911225996385554	0	0
20.933523760072546	-4.1965601903485066	0	0
14.101102162654286	-16.030661959285084	0	0
12.158056040508399	-13.476081144435284	0	0
13.836139959560739	-11.746677097197264	0	0
3.2548882288681682	-17.855764854465136	0	0
5.5916389044759285	-17.267204578138035	0	0
6.8324467618217568	-20.227221867598388	0	0
-6.8323969148945309	-20.22722202322575	0	0
-5.5915890989269315	-17.267203866218281	0	0
-3.254838296445314	-17.855765593260159	0	0
-13.836090651859678	-11.746676728112135	0	0
-12.158005864772548	-13.476081978499465	0	0
-14.101052998250793	-16.030661677249881	0	0
-20.933474077548851	-4.1965600639406802	0	0
-17.749620139435365	-3.7911227217829975	0	0
-17.090953256006088	-6.1090884960628671	0	0
-17.090953880727852	6.1090891263529983	0	0
-17.749619769248483	3.7911225996385696	0	0
-20.933474760072528	4.1965601903485066	0	0
-14.101052162654298	16.030661959285069	0	0
-12.158006040508383	13.476082144435281	0	0
-13.836089959560752	11.746677097197278	0	0
-3.2548382288681523	17.855765854465133	0	0
-5.591588904475941	17.267204578138049	0	0
-6.8323967618217409	20.2272228675984	0	0
1.600024999999988	-24	0	0
-1.5999750000000006	-24	0	0
25.600025000000016	0	0	0
22.400024999999971	0	0	0
1.600024999999988	24.000000000000014	0	0
-1.5999750000000006	24.000000000000014	0	0
28.900024999999971	0	0	0
-28.899975000000012	0	0	0
15.75	0	0	8
-15.75	0	0	8
13.25	0	0	8
-13.25	0	0	8
4	0	0	8
-4	0	0	8
9.3691648507217558	9.369164850721754	0	8
11.136931803688125	11.136931803688123	0	8
-9.369164850721754	9.3691648507217558	0	8
-11.136931803688123	11.136931803688125	0	8
-9.3691648507217558	-9.369164850721754	0	8
-11.136931803688125	-11.136931803688123	0	8
9.369164850721754	-9.3691648507217558	0	8
11.136931803688123	-11.136931803688125	0	8
-3.2548382288681519	21.100436007209254	0	0
3.254888296445301	21.100435996785091	0	0
-19.900932727605177	7.7314454121960603	0	0
-16.646069455920859	13.369033949594833	0	0
-16.646094498737028	-13.368990595013193	0	0
-19.900957752366164	-7.7314020471902545	0	0
3.254838228868147	-21.100436007209254	0	0
-3.2548882964453085	-21.100435996785091	0	0
19.900932727605174	-7.7314454121960647	0	0
16.646069455920856	-13.36903394959484	0	0
16.646094498737032	13.368990595013187	0	0
19.900957752366168	7.7314020471902474	0	0
[NumSegments] = 28
0	1	-1	0	0	0
2	3	-1	0	0	0
4	5	-1	0	0	0
6	7	-1	0	0	0
8	9	-1	0	0	0
10	11	-1	0	0	0
12	13	-1	0	0	0
14	15	-1	0	0	0
16	17	-1	0	0	0
18	19	-1	0	0	0
20	21	-1	0	0	0
22	23	-1	0	0	0
24	25	-1	0	0	0
26	27	-1	0	0	0
28	29	-1	0	0	0
30	31	-1	0	0	0
32	33	-1	0	0	0
34	35	-1	0	0	0
36	37	-1	0	0	0
38	39	-1	0	0	0
40	41	-1	0	0	0
42	43	-1	0	0	0
44	45	-1	0	0	0
46	47	-1	0	0	0
102	103	-1	0	0	8
104	105	-1	0	0	8
106	107	-1	0	0	8
108	109	-1	0	0	8
[NumArcSegments] = 110
48	49	180	5	0	0	0
49	48	180	5	0	0	0
50	51	180	5	0	0	0
51	50	180	5	0	0	0
0	52	101.33587999999997	5	0	0	0
53	1	77.943433999999996	5	0	0	0
53	54	7.6126209999999901	5	0	0	0
54	2	100.33081300000001	5	0	0	0
4	3	51.121803999999997	5	0	0	0
5	55	100.33081299999998	5	0	0	0
55	56	7.6126210000000043	5	0	0	0
6	56	77.943433999999996	5	0	0	0
57	7	101.33588	5	0	0	0
58	121	9.8949952713201696	5	0	0	0
121	120	17.538184605108835	5	0	0	0
120	57	9.8950601235709872	5	0	0	0
8	58	101.33587999999997	5	0	0	0
59	9	77.943433999999996	5	0	0	0
59	60	7.6126210000000007	5	0	0	0
60	10	100.33081300000001	5	0	0	0
12	11	51.121803999999997	5	0	0	0
13	61	100.33081299999998	5	0	0	0
61	62	7.6126210000000469	5	0	0	0
14	62	77.943433999999996	5	0	0	0
63	15	101.33587999999997	5	0	0	0
64	119	9.8949301340150786	5	0	0	0
119	118	17.538185111549353	5	0	0	0
118	63	9.8951247544356065	5	0	0	0
16	64	101.33587999999997	5	0	0	0
65	17	77.943433999999996	5	0	0	0
65	66	7.6126210000000469	5	0	0	0
66	18	100.33081299999998	5	0	0	0
20	19	51.121803999999997	5	0	0	0
21	67	100.33081299999998	5	0	0	0
67	68	7.6126210000000469	5	0	0	0
22	68	77.943433999999996	5	0	0	0
69	23	101.33587999999997	5	0	0	0
70	117	9.8949028676408517	5	0	0	0
117	116	17.538170170725284	5	0	0	0
116	69	9.8951669616338922	5	0	0	0
24	70	101.33588	5	0	0	0
71	25	77.943433999999996	5	0	0	0
71	72	7.6126210000000185	5	0	0	0
72	26	100.33081299999998	5	0	0	0
28	27	51.121803999999997	5	0	0	0
29	73	100.33081300000001	5	0	0	0
73	74	7.6126209999999901	5	0	0	0
30	74	77.943434000000025	5	0	0	0
75	31	101.33588	5	0	0	0
76	115	9.894941890072209	5	0	0	0
115	114	17.538156775241522	5	0	0	0
114	75	9.8951413346862616	5	0	0	0
32	76	101.33588	5	0	0	0
77	33	77.943433999999996	5	0	0	0
77	78	7.6126209999999901	5	0	0	0
78	34	100.33081300000001	5	0	0	0
36	35	51.121803999999997	5	0	0	0
37	79	100.33081300000001	5	0	0	0
79	80	7.6126209999999901	5	0	0	0
38	80	77.943434000000025	5	0	0	0
81	39	101.33588	5	0	0	0
82	113	9.8950070211473538	5	0	0	0
113	112	17.538156258086822	5	0	0	0
112	81	9.8950767207658128	5	0	0	0
40	82	101.33588	5	0	0	0
83	41	77.943434000000025	5	0	0	0
83	84	7.6126209999999901	5	0	0	0
84	42	100.33081300000001	5	0	0	0
44	43	51.121803999999997	5	0	0	0
45	85	100.33081300000001	5	0	0	0
85	86	7.6126209999999901	5	0	0	0
46	86	77.943434000000025	5	0	0	0
87	47	101.33588	5	0	0	0
52	111	9.8950338558822537	5	0	0	0
88	89	180	5	0	0	0
89	88	180	5	0	0	0
90	91	180	5	0	0	0
91	90	180	5	0	0	0
92	93	180	5	0	0	0
93	92	180	5	0	0	0
94	95	180	5	1	0	0
95	94	180	5	1	0	0
97	107	45	5	0	0	8
107	109	90	5	0	0	8
109	96	45.000000000000007	5	0	0	8
96	103	45	5	0	0	8
103	105	90	5	0	0	8
105	97	45.000000000000007	5	0	0	8
99	106	45	5	0	0	8
106	108	90	5	0	0	8
108	98	45.000000000000007	5	0	0	8
98	102	45	5	0	0	8
102	104	90	5	0	0	8
104	99	45.000000000000007	5	0	0	8
101	100	180	5	0	0	8
100	101	180	5	0	0	8
110	87	9.8950340393801124	5	0	0	0
111	110	17.53817210473763	5	0	0	0
85	110	90	5	0	0	0
111	54	90	5	0	0	0
79	112	90	5	0	0	0
113	84	90	5	0	0	0
73	114	90	5	0	0	0
115	78	90	5	0	0	0
67	116	90	5	0	0	0
117	72	90	5	0	0	0
61	118	90	5	0	0	0
119	66	90	5	0	0	0
55	120	90	5	0	0	0
121	60	90	5	0	0	0
[NumHoles] = 0
[NumBlockLabels] = 25
4.7000000000000002	19.100000000000001	5	0.25	2	0	0	-18	0
-5	19.199999999999999	5	0.25	3	0	0	18	0
-14.1	13.699999999999999	5	0.25	3	0	0	-18	0
-19.199999999999999	5.0999999999999996	5	0.25	1	0	0	18	0
-19.699999999999999	-5.0999999999999996	5	0.25	1	0	0	-18	0
13.199999999999999	14.199999999999999	5	0.25	2	0	0	18	0
-4.7000000000000028	-19.100000000000001	5	0.25	2	0	0	-18	0
4.9999999999999973	-19.199999999999999	5	0.25	3	0	0	18	0
14.099999999999998	-13.700000000000001	5	0.25	3	0	0	-18	0
19.199999999999999	-5.1000000000000023	5	0.25	1	0	0	18	0
19.699999999999999	5.099999999999997	5	0.25	1	0	0	-18	0
-13.200000000000001	-14.199999999999998	5	0.25	2	0	0	18	0
-0.20000000000000001	23.800000000000001	1	0.25	0	0	0	1	0
23.600000000000001	0	1	0.25	0	0	0	1	0
-0.10000000000000001	-24.300000000000001	1	0.25	0	0	0	1	0
-24.300000000000001	-0.20000000000000001	1	0.25	0	0	0	1	0
-0.40000000000000002	0	6	0.25	0	0	8	1	0
-1.1799999999999999	20.620000000000001	1	0.25	0	0	0	1	0
-2.1000000000000001	27.800000000000001	3	0.25	0	0	0	1	0
-8.8000000000000007	23.800000000000001	2	0.25	0	0	0	1	0
-5.5	8.8000000000000007	2	0.25	0	0	8	1	0
-0.59999999999999998	14.1	4	0.25	0	90	8	1	0
14.300000000000001	0.40000000000000002	4	0.25	0	180	8	1	0
-14.5	-0.20000000000000001	4	0.25	0	0	8	1	0
0.20000000000000001	-14.699999999999999	4	0.25	0	-90	8	1	0
